Version 4
SHEET 1 1092 680
WIRE 160 48 160 32
WIRE 960 48 960 32
WIRE 128 144 -32 144
WIRE 928 144 768 144
WIRE 288 160 192 160
WIRE 1088 160 992 160
WIRE -32 176 -32 144
WIRE 128 176 64 176
WIRE 768 176 768 144
WIRE 928 176 864 176
WIRE 160 224 160 192
WIRE 960 224 960 192
WIRE 960 320 960 304
WIRE 160 336 160 304
FLAG 160 32 0
FLAG -32 256 0
FLAG 64 256 0
FLAG 160 336 0
FLAG 960 32 0
FLAG 768 256 0
FLAG 864 256 0
FLAG 960 320 0
SYMBOL AutoGenerated\\TLV1811 160 96 R0
SYMATTR InstName U1
SYMBOL voltage 160 144 R180
WINDOW 0 24 96 Left 2
WINDOW 3 24 16 Left 2
WINDOW 123 0 0 Left 0
WINDOW 39 0 0 Left 0
SYMATTR InstName V1
SYMATTR Value 5
SYMBOL voltage 64 160 R0
WINDOW 123 0 0 Left 0
WINDOW 39 0 0 Left 0
SYMATTR InstName V2
SYMATTR Value 2
SYMBOL voltage -32 160 M0
WINDOW 123 0 0 Left 0
WINDOW 39 0 0 Left 0
SYMATTR InstName V3
SYMATTR Value PULSE(0 4 1 0.001 0.001 1 2 4)
SYMBOL voltage 160 208 R0
WINDOW 123 0 0 Left 0
WINDOW 39 0 0 Left 0
SYMATTR InstName V4
SYMATTR Value .2
SYMBOL AutoGenerated\\TLV1811 960 96 R0
SYMATTR InstName U2
SYMBOL voltage 960 144 R180
WINDOW 0 24 96 Left 2
WINDOW 3 24 16 Left 2
WINDOW 123 0 0 Left 0
WINDOW 39 0 0 Left 0
SYMATTR InstName V5
SYMATTR Value 5
SYMBOL voltage 864 160 R0
WINDOW 123 0 0 Left 0
WINDOW 39 0 0 Left 0
SYMATTR InstName V6
SYMATTR Value 2
SYMBOL voltage 768 160 M0
WINDOW 123 0 0 Left 0
WINDOW 39 0 0 Left 0
SYMATTR InstName V7
SYMATTR Value PULSE(0 4 1 0.001 0.001 1 2 4)
SYMBOL voltage 960 208 R0
WINDOW 123 0 0 Left 0
WINDOW 39 0 0 Left 0
SYMATTR InstName V8
SYMATTR Value .3
TEXT -420 280 Left 2 !.tran 6
